nrt/data/Network/DanglingLine/CPP/NodeFault/network.iidm
<?xml version="1.0" encoding="UTF-8"?>
<!--
    Copyright (c) 2026, RTE (http://www.rte-france.com)
    See AUTHORS.txt
    All rights reserved.
    This Source Code Form is subject to the terms of the Mozilla Public
    License, v. 2.0. If a copy of the MPL was not distributed with this
    file, you can obtain one at http://mozilla.org/MPL/2.0/.
    SPDX-License-Identifier: MPL-2.0

    This file is part of Dynawo, an hybrid C++/Modelica open source suite
    of simulation tools for power systems.
-->
<iidm:network xmlns:iidm="http://www.powsybl.org/schema/iidm/1_4" id="test" caseDate="2026-10-05T10:00:00.000+02:00" forecastDistance="0" sourceFormat="test">
    <iidm:substation id="S1" name="S1_NAME" country="FR" tso="TSO">
        <iidm:voltageLevel id="VL1" name="VL1_NAME" nominalV="400.0" lowVoltageLimit="360.0" highVoltageLimit="440.0" topologyKind="BUS_BREAKER">
            <iidm:busBreakerTopology>
                <iidm:bus id="VL1_BUS1" v="400.0" angle="0.0"/>
            </iidm:busBreakerTopology>
            <iidm:generator id="InfiniteBus" energySource="NUCLEAR" minP="0.0" maxP="10000.0" voltageRegulatorOn="true" targetP="100.13" targetV="400.0" targetQ="31.3" bus="VL1_BUS1" connectableBus="VL1_BUS1" p="-100.13" q="-31.3"/>
        </iidm:voltageLevel>
    </iidm:substation>
    <iidm:substation id="S2" name="S2_NAME" country="FR" tso="TSO">
        <iidm:voltageLevel id="VL2" name="VL2_NAME" nominalV="400.0" lowVoltageLimit="360.0" highVoltageLimit="440.0" topologyKind="BUS_BREAKER">
            <iidm:busBreakerTopology>
                <iidm:bus id="VL2_BUS1" v="399.0" angle="-0.347"/>
            </iidm:busBreakerTopology>
            <iidm:danglingLine id="DanglingLine" name="DanglingLine_NAME" r="1.0" x="10.0" g="0.0" b="0.0" p0="100.0" q0="30.0" bus="VL2_BUS1" connectableBus="VL2_BUS1" p="100.06" q="30.63"/>
        </iidm:voltageLevel>
    </iidm:substation>
    <iidm:line id="line1" r="1.0" x="10.0" g1="0.0" b1="0.0" g2="0.0" b2="0.0" bus1="VL1_BUS1" connectableBus1="VL1_BUS1" voltageLevelId1="VL1" bus2="VL2_BUS1" connectableBus2="VL2_BUS1" voltageLevelId2="VL2" p1="100.13" q1="31.3" p2="-100.06" q2="-30.63"/>
</iidm:network>
